finidat = '/global/cfs/cdirs/m4218/jingtao/Step4_PlantTraits281_wTop10CNPset/Kougarok_ELM-FATES_CNP5_PtEn251_TRANS/run/Kougarok_ELM-FATES_CNP5_PtEn251_TRANS.elm.r.2013-01-01-00000.nc '
